16

C         -1.57338       -0.67005       -0.06192
C         -2.27868        0.58905       -0.09352
C         -1.56998        1.92815        0.14928
C         -0.02828        1.91965        0.25138
C          0.72902        0.56745        0.28568
C         -0.06708       -0.75495        0.21748
Q        -1.93403        2.52120        0.22523
Q         0.24645       -1.37154        0.32475
H         0.54562        2.90035        0.34348
H         1.86282        0.54855        0.40358
C         -3.52218        0.01445        0.59888
C         -2.72778       -1.40405        0.63388
Xx         -4.42628        0.01315       -0.09552
H         -3.69338        0.49065        1.62038
H         -3.18608       -2.19975       -0.04162
Xx         -2.43348       -1.76075        1.67588
