10

N         -1.53282       -0.70558       -0.17154
C         -2.28582        0.63772       -0.20574
C         -1.51102        1.95832       -0.03924
N          0.01868        1.93612        0.13806
C          0.77138        0.59312        0.17206
C         -0.00602       -0.72818        0.02986
Q        -1.85379        2.56865       -0.04183
Q         0.33467       -1.33903        0.05799
Xx         1.90378        0.57672        0.30386
Xx        -3.41732        0.65412       -0.34384
