24

C         -3.53026        1.44576       -0.00018
C         -2.74686        0.11986       -0.00008
C         -1.20696        0.13556        0.00012
C         -0.45106        1.47686        0.00002
C         -1.23396        2.80256       -0.00028
C         -2.77366        2.78716       -0.00018
C         -0.47706        4.14356       -0.00058
C          1.06314        4.15846       -0.00038
C          1.84574        2.83196       -0.00018
C          1.08814        1.49146       -0.00008
C          1.86924        0.16456       -0.00008
C          3.40914        0.17796       -0.00038
C          4.16724        1.51866       -0.00038
C          3.38554        2.84566       -0.00018
H        -4.67016        1.43436       -0.00038
Xx        -3.30676       -0.87314       -0.00028
H         -0.62616       -0.84554        0.00012
Q        -3.12955        3.38994       -0.00023
H         -1.05696        5.12506       -0.00098
H          1.62374        5.15106       -0.00058
H          1.30704       -0.82734       -0.00008
Q         3.76459       -0.42508       -0.00065
H         5.30724        1.52866       -0.00048
Xx         3.94674        3.83786       -0.00008
