10

C         -5.26592        2.90143        0.00001
C         -4.98432        1.38723        0.00081
C         -4.70202       -0.12677        0.00201
C         -3.24982       -0.63907        0.00131
C         -2.96762       -2.15297        0.00211
C         -2.68662       -3.66707        0.00331
Q        -5.39346        3.58972       -0.00045
Q        -2.55926       -4.35538        0.00385
Xx        -5.56812       -0.86827        0.00301
Xx        -2.38392        0.10233        0.00061
