26

C         -3.98370        2.32016        0.00066
C         -3.21330        0.98666        0.00066
C         -1.67330        0.98706        0.00086
C         -0.90350        2.32076        0.00056
C         -1.67380        3.65426        0.00016
C         -3.21390        3.65396        0.00026
C          0.63640        2.32106        0.00046
C          1.40660        0.98756        0.00096
C          0.63680       -0.34634        0.00116
C         -0.90320       -0.34654        0.00096
C         -0.90410        4.98796       -0.00034
C          0.63590        4.98826       -0.00044
C          1.40610        3.65476       -0.00004
C          2.94650        0.98786        0.00066
C          3.71640        2.32166       -0.00004
C          2.94620        3.65516       -0.00034
Q        -4.68370        2.32016        0.00089
H         -3.78280       -0.00084        0.00046
H         -3.78390        4.64116        0.00016
Xx         1.20700       -1.33344        0.00156
H        -1.47300       -1.33384        0.00136
Xx        -1.47440        5.97506       -0.00084
H         1.20580        5.97546       -0.00104
H          3.51660        0.00056        0.00106
Q         4.41640        2.32180       -0.00013
H          3.51590        4.64256       -0.00114
