20

C         -2.95239        1.46632        0.02521
C         -1.46159        1.76842       -0.23249
C         -1.21989        0.29242        0.12021
C         -2.70439       -0.01628        0.37281
C         -1.78089        1.49152       -1.70969
C         -1.53259        0.00792       -1.36389
C         -3.26519        1.18082       -1.45879
C         -3.02299       -0.29488       -1.10459
C         -1.03879        3.06022        0.49131
C         -3.44029       -1.59568       -1.81519
Xx        -3.61129        2.14022        0.66631
H       -0.27049       -0.25948        0.42601
H         -3.26839       -0.28918        1.32521
H        -1.21589        1.76322       -2.66169
Xx         -0.87449       -0.66408       -2.00789
H        -4.21499        1.73172       -1.76489
C         -0.60929        4.35032        1.21381
C         -3.86319       -2.89608       -2.52329
Q        -0.41287        4.93681        1.54160
Q        -4.05652       -3.48739       -2.84419
