16

C         -2.97448        1.45534        0.01363
C         -1.48640        1.78569       -0.22554
C         -1.22311        0.31150        0.12044
C         -2.70455       -0.02528        0.35339
C         -1.78372        1.51193       -1.70841
C         -1.51378        0.03127       -1.36868
C         -3.26507        1.17488       -1.47550
C         -3.00174       -0.29932       -1.12951
Q        -1.31859        2.37611        0.11099
Q        -3.16805       -0.89013       -1.46608
H        -3.65038        2.11410        0.65292
H         -0.26988       -0.22977        0.43339
Xx        -3.27121       -0.31175        1.30015
Xx        -1.21649        1.79728       -2.65513
H        -0.83800       -0.62738       -2.00827
H         -4.21817        1.71576       -1.78946
