28

C         -5.58850        1.03573        0.87797
C         -5.21070       -0.18037        0.01207
C         -3.94030       -0.14157       -0.85753
C         -3.04660        1.11273       -0.85993
C         -3.42520        2.32923        0.00517
C         -4.69590        2.29063        0.87417
C         -2.53200        3.58363        0.00267
N         -1.27830        3.61563       -0.83833
N         -0.41790        4.81993       -0.83823
C         -0.79800        6.01903       -0.00263
N         -2.05350        5.98823        0.83587
N         -2.91030        4.78153        0.84087
C          0.09510        7.27373       -0.00513
C          1.38210        7.30083       -0.85003
C          2.27550        8.55523       -0.85213
C          1.88120        9.78293       -0.01013
C          0.59340        9.75623        0.83377
C         -0.29910        8.50123        0.83717
H        -6.52930        1.00723        1.52137
Q        -5.61669       -0.75061        0.01348
H        -3.66140       -1.04147       -1.49943
Xx         -2.10550        1.14143       -1.50273
H         -4.97570        3.19143        1.51457
H          1.67380        6.39183       -1.47323
H         3.22890        8.57483       -1.47673
Q         2.28709       10.35324       -0.01131
H         0.30070       10.66553        1.45597
Xx         -1.25190        8.48083        1.46267
