26

C         -2.17897       -0.00999        0.18087
C         -1.35217       -1.29359        0.24477
C         -0.04817       -0.62439       -0.30963
C          0.18333        0.82311        0.24477
C         -1.29397        1.21021        0.18157
C         -3.70467        0.09791        0.00147
C         -4.28027        1.51491       -0.17723
C         -3.39537        2.73481       -0.17703
C         -1.86977        2.62711        0.00277
C         -4.22187        4.01881       -0.23793
C         -5.52577        3.34851        0.31607
C         -5.75707        1.90191       -0.23983
Xx        -4.37417       -0.82469        0.00167
Xx        -1.20027        3.54961        0.00267
Q         0.51567       -1.03350       -0.24104
Q        -6.08955        3.75791        0.24861
H         -1.22167       -1.61159        1.33177
H         -1.72387       -2.14839       -0.41143
H         -0.25297       -0.47479       -1.42103
H          0.88193        1.44161       -0.41023
H          0.52503        0.79631        1.33207
H         -3.85047        4.87421        0.41787
H         -4.35357        4.33661       -1.32483
H         -5.31937        3.19771        1.42707
H         -6.09967        1.93021       -1.32663
H         -6.45527        1.28281        0.41497
