24

C         -4.54683       -0.69252       -0.00017
C         -3.77943       -2.02722       -0.00007
C         -2.23913       -2.02952        0.00003
C         -1.46623       -0.69762        0.00013
C         -2.23353        0.63668       -0.00047
C         -3.77363        0.63918        0.00003
C         -1.46163        1.96898        0.00013
C          0.07807        1.96658        0.00023
C          0.84597        0.63148       -0.00027
C          0.07357       -0.70062       -0.00027
C          2.38577        0.62758       -0.00007
C          3.15787        1.95988       -0.00007
C          2.38997        3.29518        0.00013
C          0.84977        3.29888        0.00003
Q        -1.81045        2.57588       -0.00005
Q         0.42241       -1.30750       -0.00032
Xx        -5.68693       -0.69012       -0.00047
H        -4.35123       -3.01342       -0.00057
H         -1.67073       -3.01772       -0.00027
H         -4.34143        1.62768       -0.00047
H          2.95317       -0.36112       -0.00087
Xx         4.29787        1.95788       -0.00037
H         2.96197        4.28118        0.00123
H          0.28137        4.28718        0.00093
