18

C         -4.54691       -0.69258       -0.00039
C         -3.77941       -2.02788       -0.00029
C         -2.23931       -2.03088       -0.00009
C         -1.46711       -0.69858       -0.00009
C         -2.23461        0.63662       -0.00029
C         -3.77461        0.63982       -0.00039
C         -1.46231        1.96872       -0.00029
C          0.07779        1.96612        0.00001
C          0.84519        0.63102       -0.00029
C          0.07279       -0.70128       -0.00019
Q        -1.81146        2.57543       -0.00052
Q         0.42155       -1.30821       -0.00037
Xx        -5.68691       -0.69048       -0.00029
H        -4.35141       -3.01398       -0.00049
H         -1.67091       -3.01918        0.00001
H         -4.34261        1.62832       -0.00049
H         0.64949        2.95232        0.00001
Xx         1.98529        0.62882       -0.00009
